Circuit: * Z:\home\domh\work\UAS\esd1\proj\git\CarreraAI\Hardware\baseboard\sim\Inverter\Draft1.asc

WARNING: Node OUT is floating.

WARNING: Less than two connections to node OUT.  This node is used by C1.
Direct Newton iteration for .op point succeeded.

Date: Wed Apr 19 11:28:03 2017
Total elapsed time: 0.057 seconds.

tnom = 27
temp = 27
method = modified trap
totiter = 2085
traniter = 2082
tranpoints = 1042
accept = 1042
rejected = 0
matrix size = 1
fillins = 0
solver = Normal
Matrix Compiler1: off  [0.3]/0.3/0.3
Matrix Compiler2: off  [0.3]/0.4/0.4


