Circuit: * Z:\home\domh\work\UAS\esd1\proj\git\CarreraAI\Hardware\baseboard\sim\Inverter\Inverter.asc

Error on line 560 : r:u1:1:1 out«:d:d» u1:1:3 1.418e-01 4.402e-03 8.059e-06
	 Unknown parameter "8.059e-06"
Error on line 564 : r:u1:1:tcv u1:1:100 0«:s:s» 1e6 2.108e-04 5.861e-07
	 Unknown parameter "5.861e-07"
Error on line 560 : r:u2:1:1 p001«:d:d» u2:1:3 1.418e-01 4.402e-03 8.059e-06
	 Unknown parameter "8.059e-06"
Error on line 564 : r:u2:1:tcv u2:1:100 0«:s:s» 1e6 2.108e-04 5.861e-07
	 Unknown parameter "5.861e-07"
Error on line 582 : .model u2:2:dout d (is=1.763e-10 xti=1.433e+01 eg=1.17 tref=25 tcv=-3.285e-03 n=2.898e+00 bv=6.560e+00 )
	* Unrecognized parameter "tcv" -- ignored
Error on line 576 : .model u2:2:dleak d (is=4.652e-10 xti=5.768e+02 eg=1.17 tref=25 tcv=0 n=4.541e+01 bv=50)
	* Unrecognized parameter "tcv" -- ignored
Error on line 571 : .model u2:1:dbd d ( fc=0.1 tt=2.000e-08 tref=25 bv=21 rs=1.000e-01 n=1.665e+00 is=1.000e-07 eg=9.022e-01 xti=2.955e-01 trs=2.459e-03 cjo=200e-12 vj=0.38 m=0.28 )
	* Unrecognized parameter "trs" -- ignored
Error on line 582 : .model u1:2:dout d (is=1.763e-10 xti=1.433e+01 eg=1.17 tref=25 tcv=-3.285e-03 n=2.898e+00 bv=6.560e+00 )
	* Unrecognized parameter "tcv" -- ignored
Error on line 576 : .model u1:2:dleak d (is=4.652e-10 xti=5.768e+02 eg=1.17 tref=25 tcv=0 n=4.541e+01 bv=50)
	* Unrecognized parameter "tcv" -- ignored
Error on line 571 : .model u1:1:dbd d ( fc=0.1 tt=2.000e-08 tref=25 bv=21 rs=1.000e-01 n=1.665e+00 is=1.000e-07 eg=9.022e-01 xti=2.955e-01 trs=2.459e-03 cjo=200e-12 vj=0.38 m=0.28 )
	* Unrecognized parameter "trs" -- ignored
Model "u2:1:pmos": Oxide thickness thinner than recommended for a level 3 MOSFET.
Model "u2:1:nmos": Oxide thickness thinner than recommended for a level 3 MOSFET.
Model "u1:1:pmos": Oxide thickness thinner than recommended for a level 3 MOSFET.
Model "u1:1:nmos": Oxide thickness thinner than recommended for a level 3 MOSFET.
Limiting rise time of source v2 to 1e-006
Limiting fall time of source v2 to 1e-006
Instance "m:u2:1:2": Length shorter than recommended for a level 3 MOSFET.
Instance "m:u2:1:1": Length shorter than recommended for a level 3 MOSFET.
Instance "m:u1:1:2": Length shorter than recommended for a level 3 MOSFET.
Instance "m:u1:1:1": Length shorter than recommended for a level 3 MOSFET.
Direct Newton iteration for .op point succeeded.

Date: Thu Apr 13 23:28:46 2017
Total elapsed time: 0.143 seconds.

tnom = 27
temp = 27
method = modified trap
totiter = 6404
traniter = 6379
tranpoints = 3028
accept = 2398
rejected = 630
matrix size = 36
fillins = 7
solver = Normal
Matrix Compiler1: 1.81 KB object code size  0.9/0.6/[0.4]
Matrix Compiler2: 2.67 KB object code size  0.5/0.7/[0.5]


