Circuit: *Jan 23, 2012

Fatal Error: No analysis request found.
